@<TRIPOS>MOLECULE
ZINC12493522
   36    37     0     0     0
SMALL
USER_CHARGES

@<TRIPOS>ATOM
      1 C1         -0.0171    1.4115    0.0098 C.2       1 <0>        -0.3108
      2 C2          1.1534    2.0845    0.0022 C.2       1 <0>         0.1964
      3 N1          2.3333    1.3916   -0.0127 N.am      1 <0>        -0.5242
      4 C3          2.3379    0.0462   -0.0205 C.2       1 <0>         0.6893
      5 O1          3.3978   -0.5494   -0.0342 O.2       1 <0>        -0.4992
      6 N2          1.1858   -0.6496   -0.0128 N.am      1 <0>        -0.6589
      7 H1          1.2071   -1.6194   -0.0179 H         1 <0>         0.4299
      8 C4          0.0021   -0.0041    0.0020 C.2       1 <0>         0.5552
      9 O2         -1.0408   -0.6329    0.0090 O.2       1 <0>        -0.5328
     10 C5          3.6034    2.1217   -0.0210 C.3       1 <0>         0.3015
     11 H2          3.4240    3.1927   -0.1150 H         1 <0>         0.1264
     12 C6          4.4045    1.8215    1.2653 C.3       1 <0>         0.0359
     13 H3          4.1051    0.8618    1.6866 H         1 <0>         0.0879
     14 C7          5.8735    1.7689    0.7891 C.3       1 <0>         0.0509
     15 H4          6.3002    0.7833    0.9749 H         1 <0>         0.0929
     16 C8          5.7861    2.0436   -0.7286 C.3       1 <0>         0.0900
     17 H5          5.9431    3.1028   -0.9322 H         1 <0>         0.1003
     18 O3          4.4440    1.6560   -1.0992 O.3       1 <0>        -0.3238
     19 C9          6.8150    1.1990   -1.4828 C.3       1 <0>         0.1421
     20 O4          6.7980    1.5519   -2.8675 O.3       1 <0>        -0.7609
     21 P1          7.7564    0.8600   -3.9605 P.3       1 <0>         2.2802
     22 O5          9.2288    0.9915   -3.5113 O.2       1 <0>        -1.1157
     23 O6          7.3902   -0.6351   -4.0938 O.3       1 <0>        -1.1265
     24 O7          7.5621    1.5890   -5.3828 O.3       1 <0>        -1.0903
     25 P2          8.3996    1.5996   -6.7578 P.3       1 <0>         2.2107
     26 O8          9.9322    1.6406   -6.4355 O.2       1 <0>        -1.1920
     27 O9          8.0730    0.3055   -7.5782 O.3       1 <0>        -1.2034
     28 O10         8.0086    2.8630   -7.5977 O.3       1 <0>        -1.2035
     29 O11         6.6472    2.7789    1.4397 O.3       1 <0>        -0.5334
     30 O12         4.2230    2.8660    2.2235 O.3       1 <0>        -0.5454
     31 H6         -0.9555    1.9460    0.0261 H         1 <0>         0.1707
     32 H7          1.1584    3.1644    0.0076 H         1 <0>         0.1799
     33 H8          7.8078    1.3841   -1.0728 H         1 <0>         0.0725
     34 H9          6.5681    0.1429   -1.3740 H         1 <0>         0.0587
     35 H10         6.6849    2.6869    2.4016 H         1 <0>         0.3698
     36 H11         4.7042    2.7287    3.0509 H         1 <0>         0.3797
@<TRIPOS>BOND
     1    1    8 1
     2    1    2 2
     3    1   31 1
     4    2    3 1
     5    2   32 1
     6    3    4 am
     7    3   10 1
     8    4    5 2
     9    4    6 am
    10    6    7 1
    11    6    8 am
    12    8    9 2
    13   10   11 1
    14   10   18 1
    15   10   12 1
    16   12   13 1
    17   12   14 1
    18   12   30 1
    19   14   15 1
    20   14   16 1
    21   14   29 1
    22   16   17 1
    23   16   18 1
    24   16   19 1
    25   19   20 1
    26   19   33 1
    27   19   34 1
    28   20   21 1
    29   21   22 2
    30   21   23 1
    31   21   24 1
    32   24   25 1
    33   25   26 2
    34   25   27 1
    35   25   28 1
    36   29   35 1
    37   30   36 1
